case_yantai.m
function mpc = case_yantai
%%--------------------------------case_yantai-----------------------------
%   Power flow data for 19 bus, 5 generator case.
%   Please see CASEFORMAT for details on the case file format.
%%------------------------------Based on data from------------------------
%   paper given by professor Li.
%   MATPOWER Case Format : Version 2
%%------------------------------------------------------------------------
mpc.version = '2';

%%-----  Power Flow Data  -----%%
%% system MVA base
mpc.baseMVA = 100;

%% bus data
%	  bus_i	type	Pd	    Qd	Gs	Bs	area	Vm	Va	baseKV	zone	Vmax	Vmin
mpc.bus = [
    1     2     0       0   0   0   1     1   0   135     1     1.05  0.95 
    2     1     84.87   0   0   0   1     1   0   135     1     1.05  0.95 
	3     1     82.11   0   0   0   1     1   0   135     1     1.05  0.95
    4     2     0       0   0   0   1     1   0   135     1     1.05  0.95
    5     1     273.65  0   0   0   1     1   0   135     1     1.05  0.95
    6     1     152.45  0   0   0   1     1   0   135     1     1.05  0.95 
	7     1     88.31   0   0   0   1     1   0   135     1     1.05  0.95
    8     1     97.14   0   0   0   1     1   0   135     1     1.05  0.95
    9     2     0       0   0   0   1     1   0   135     1     1.05  0.95
    10    1     135.94  0   0   0   1     1   0   135     1     1.05  0.95
    11    1     0       0   0   0   1     1   0   135     1     1.05  0.95 %开关站
	12    1     92.66   0   0   0   1     1   0   135     1     1.05  0.95
    13    1     193.25  0   0   0   1     1   0   135     1     1.05  0.95
    14    1     0       0   0   0   1     1   0   135     1     1.05  0.95 %开关站
    15    1     136.66  0   0   0   1     1   0   135     1     1.05  0.95 
	16    1     74.97   0   0   0   1     1   0   135     1     1.05  0.95
    17    1     61.43   0   0   0   1     1   0   135     1     1.05  0.95
    18    1     107.60  0   0   0   1     1   0   135     1     1.05  0.95 
	19    1     72.33   0   0   0   1     1   0   135     1     1.05  0.95
    20    1     158.20  0   0   0   1     1   0   135     1     1.05  0.95
    21    2     0       0   0   0   1     1   0   135     1     1.05  0.95
    22    1     85.00   0   0   0   1     1   0   135     1     1.05  0.95
    23    1     105.91  0   0   0   1     1   0   135     1     1.05  0.95 
	24    1     110.18  0   0   0   1     1   0   135     1     1.05  0.95
    25    3     0       0   0   0   1     1   0   135     1     1.05  0.95 %等值发电机，平衡节点
    26    1     42.96   0   0   0   1     1   0   135     1     1.05  0.95
];

%% generator data
%	bus	  Pg	Qg	Qmax	Qmin	Vg	mBase	status	Pmax	Pmin	Pc1	Pc2	Qc1min	Qc1max	Qc2min	Qc2max	ramp_agc	ramp_10	ramp_30	ramp_q	apf
mpc.gen = [
    1	  0     0	150     -20     1	  100	  1	      440	  13.2	    0	0	0	0	0	0	0	0	0	0	0; %发电节点的有功输出为决策变量，在算法中进化得到，故此处设置为0即可
    4	  0     0	60      -20     1	  100	  1	      740	  22	    0	0	0	0	0	0	0	0	0	0	0; %输出上限下限在主程序中更新
    9 	  0     0	62.5	-15     1	  100	  1	      660	  19.8	    0	0	0	0	0	0	0	0	0	0	0;
    21	  0     0	48.7	-15     1	  100	  1	      700	  21	    0	0	0	0	0	0	0	0	0	0	0;
    25	  0     0	40      -10     1	  100	  1	      640	  0         0	0	0	0	0	0	0	0	0	0	0;
];

%% branch data
%	fbus	tbus	r	    x	      b	    rateA	  rateB	  rateC	    ratio	angle	status	angmin	angmax
mpc.branch = [
	1	    2	    0	    0.0515	0	    272.45	272.45	272.45	  0	    0	    1	      -360	  360;
	1	    6	    0	    0.0453	0	    272.45	272.45	272.45	  0	    0	    1	      -360	  360;
	1	    7	    0	    0.0591	0	    272.45	272.45	272.45	  0	    0	    1	      -360	  360;
	1	    8	    0	    0.0161	0	    653.88	653.88	653.88	  0	    0	    1	      -360	  360;
    1	    10      0	    0.0411	0	    272.45	272.45	272.45    0	    0	    1	      -360	  360;
	2	    3	    0	    0.0101	0	    653.88	653.88	653.88	  0	    0	    1	      -360	  360;
	2	    7	    0	    0.0345	0	    272.45	272.45	272.45	  0	    0	    1	      -360	  360;
	3	    11      0	    0.0094	0	    653.88	653.88	653.88	  0	    0	    1	      -360	  360;
	4	    5	    0	    0.0048	0	    653.88	653.88	653.88	  0	    0	    1	      -360	  360;
    5	    6       0	    0.0048	0	    653.88	653.88	653.88    0	    0	    1	      -360	  360;
    6	    10      0	    0.0138	0	    272.45	272.45	272.45	  0	    0	    1	      -360	  360;
	7	    10      0	    0.0511	0	    272.45	272.45	272.45	  0	    0	    1	      -360	  360;
	7	    15      0	    0.0589	0	    272.45	272.45	272.45	  0	    0	    1	      -360	  360;
	8	    10      0	    0.0171	0	    272.45	272.45	272.45	  0	    0	    1	      -360	  360;
    8	    12      0	    0.0554	0	    272.45	272.45	272.45    0	    0	    1	      -360	  360;
    9	    10      0	    0.0101	0	    544.90	544.90	544.90	  0	    0	    1	      -360	  360;
	10      14      0	    0.0041	0	    653.88	653.88	653.88	  0	    0	    1	      -360	  360;
	10      24      0	    0.0621	0	    272.45	272.45	272.45	  0	    0	    1	      -360	  360;
	11      14      0	    0.0566	0	    381.43	381.43	381.43	  0	    0	    1	      -360	  360;
    12      13      0	    0.0119	0	    272.45	272.45	272.45    0	    0	    1	      -360	  360;
    13      14      0	    0.0198	0	    272.45	272.45	272.45	  0	    0	    1	      -360	  360;
	13      18      0	    0.0128	0	    272.45	272.45	272.45	  0	    0	    1	      -360	  360;
	13      19      0	    0.0103	0	    272.45	272.45	272.45	  0	    0	    1	      -360	  360;
	14      19      0	    0.0154	0	    326.94	326.94	326.94	  0	    0	    1	      -360	  360;
    14      25      0	    0.0443	0	    381.43	381.43	381.43    0	    0	    1	      -360	  360;
    15      16      0	    0.0241	0	    272.45	272.45	272.45	  0	    0	    1	      -360	  360;
	15      24      0	    0.0561	0	    272.45	272.45	272.45	  0	    0	    1	      -360	  360;
	15      25      0	    0.0080	0	    653.88	653.88	653.88	  0	    0	    1	      -360	  360;
	16      17      0	    0.0148	0	    326.94	326.94	326.94	  0	    0	    1	      -360	  360;
    16      25      0	    0.0188	0	    326.94	326.94	326.94    0	    0	    1	      -360	  360;
    17      25      0	    0.0172	0	    326.94	326.94	326.94	  0	    0	    1	      -360	  360;
	18      21      0	    0.0090	0	    272.45	272.45	272.45	  0	    0	    1	      -360	  360;
	19      20      0	    0.0011	0	    272.45	272.45	272.45	  0	    0	    1	      -360	  360;
	19      21      0	    0.0112	0	    272.45	272.45	272.45	  0	    0	    1	      -360	  360;
    20      22      0	    0.0003	0	    544.90	544.90	544.90    0	    0	    1	      -360	  360;
    20      23      0	    0.0516	0	    272.45	272.45	272.45	  0	    0	    1	      -360	  360;
	21      22      0	    0.0019	0	    544.90	544.90	544.90	  0	    0	    1	      -360	  360;
	24      25      0	    0.0170	0	    653.88	653.88	653.88	  0	    0	    1	      -360	  360;
    25      26      0	    0.0105	0	    653.88	653.88	653.88    0	    0	    1	      -360	  360;
];

%%-----  OPF Data  -----%%
%% generator cost data
%	1	startup	shutdown	n	x1	y1	...	xn	yn
%	2	startup	shutdown	n	c(n-1)	...	c0
mpc.gencost = [
	2	1500	0	3	0.02842	25.9318	24.7605  0	2	-1  0	0	4.4	    4.4	0	10 10 1 0.10 2.3;	%	15	2.4	12	0	6	U12
	2	1500	0	3	0.02855	26.0611	24.8882  1	0	-1  0	0	7.4  	7.4	0	10 10 1 0.10 2.3;	%	15	2.4	12	0	6	U12
	2	1500	0	3	0.00463	10.6940	142.7348 5	3	 5  3	2	6.6     6.6	5	150 150 6 1.14 1.2;	%	15	2.4	12	0	6	U12
    2	1500	0	3	0.01199	37.5510	117.7511 0	1	-1  1	0	7       7	1	20 20 2 0.25 3.0;	%	1	16	20	0	10	U20%1
	2	1500	0	3	0.01261	37.6637	118.1083 3	0	-1  1	0	6.4     6.4	1	20 20 2 0.25 3.0;	%	1	16	20	0	10	U20
];
